Version 4
SHEET 1 4288 2324
WIRE 2464 688 1504 688
WIRE 1504 832 1504 688
WIRE 2192 832 1504 832
WIRE 2464 832 2464 688
WIRE 1104 912 912 912
WIRE 1424 912 1360 912
WIRE 1504 912 1504 832
WIRE 1504 912 1424 912
WIRE 1584 912 1504 912
WIRE 2192 912 1808 912
WIRE 2416 912 2192 912
WIRE 2464 944 2464 928
WIRE 912 976 912 912
WIRE 1584 992 1504 992
WIRE 2464 1040 2464 1008
WIRE 1504 1072 1504 992
WIRE 1584 1072 1504 1072
WIRE 1824 1072 1808 1072
WIRE 1824 1136 1824 1072
WIRE 2464 1168 2464 1120
WIRE 2464 1168 2336 1168
WIRE 2336 1232 2336 1168
WIRE 2464 1232 2464 1168
WIRE 912 1280 912 1040
WIRE 1232 1280 1232 1008
WIRE 1232 1280 912 1280
WIRE 1424 1280 1424 976
WIRE 1424 1280 1232 1280
WIRE 1504 1280 1504 1072
WIRE 1504 1280 1424 1280
WIRE 1824 1280 1824 1216
WIRE 1824 1280 1504 1280
WIRE 2016 1312 1904 1312
WIRE 2208 1312 2016 1312
WIRE 2336 1312 2288 1312
WIRE 2416 1312 2336 1312
WIRE 912 1344 912 1280
WIRE 1904 1344 1904 1312
WIRE 1824 1456 1824 1280
WIRE 1904 1456 1904 1424
WIRE 1904 1456 1824 1456
WIRE 2016 1456 2016 1376
WIRE 2016 1456 1904 1456
WIRE 2464 1456 2464 1328
WIRE 2464 1456 2016 1456
FLAG 912 1344 0
SYMBOL res 1840 1232 R180
WINDOW 0 36 76 Left 2
WINDOW 3 36 40 Left 2
SYMATTR InstName R4
SYMATTR Value 3000k
SYMBOL SpecialFunctions\\LTC6907 1696 992 R0
SYMATTR InstName U1
SYMBOL PowerProducts\\LT1085-3.3 1232 912 R0
SYMATTR InstName U2
SYMBOL Misc\\cell 912 976 R0
WINDOW 123 0 0 Left 2
WINDOW 39 0 0 Left 2
SYMATTR InstName V1
SYMATTR Value 4.2
SYMBOL cap 1408 912 R0
SYMATTR InstName C2
SYMATTR Value 10µF
SYMBOL LED 2480 944 M0
SYMATTR InstName D2
SYMATTR Value LXML-PWN2-VFBin_R
SYMATTR Description Diode
SYMATTR Type diode
SYMBOL pmos 2416 832 R0
SYMATTR InstName M1
SYMATTR Value Si9803DY
SYMBOL res 2176 816 R0
SYMATTR InstName R2
SYMATTR Value 4.7k
SYMBOL res 2480 1136 R180
WINDOW 0 36 76 Left 2
WINDOW 3 36 40 Left 2
SYMATTR InstName R1
SYMATTR Value 0.1
SYMBOL nmos 2416 1232 R0
SYMATTR InstName M2
SYMATTR Value IRFH6200
SYMBOL voltage 1904 1328 R0
WINDOW 123 0 0 Left 2
WINDOW 39 0 0 Left 2
SYMATTR InstName V2
SYMATTR Value 3.3
SYMBOL res 2320 1216 R0
SYMATTR InstName R5
SYMATTR Value 2.8K
SYMATTR SpiceLine tol=1 pwr=0.1
SYMBOL cap 2000 1312 R0
SYMATTR InstName C1
SYMATTR Value 10n
SYMBOL res 2304 1296 R90
WINDOW 0 0 56 VBottom 2
WINDOW 3 32 56 VTop 2
SYMATTR InstName R6
SYMATTR Value 4.7k
TEXT 1736 1504 Left 2 !.tran 0.9m startup
TEXT 1824 888 Left 2 ;cca 67kHz
TEXT 1864 1288 Left 2 ;1.3V - 3.3V (GPIO PWM)
TEXT 1368 880 Left 2 ;vcc 3.3V
